data_WS2_bilayer_AB
_chemical_formula_structural       W2S4
_chemical_formula_sum              "W2 S4"
_cell_length_a       3.185945949661
_cell_length_b       3.185945949661
_cell_length_c       39.391189751945
_cell_angle_alpha    90.0
_cell_angle_beta     90.0
_cell_angle_gamma    120.00000000000001

_space_group_name_H-M_alt    "P 1"
_space_group_IT_number       1

loop_
  _space_group_symop_operation_xyz
  'x, y, z'

loop_
  _atom_site_type_symbol
  _atom_site_label
  _atom_site_symmetry_multiplicity
  _atom_site_fract_x
  _atom_site_fract_y
  _atom_site_fract_z
  _atom_site_occupancy
  W   W1_L1        1.0  0.000000000000  0.000000000000  0.420723454720  1.0000
  S   S1_L1        1.0  0.666666666667  0.333333333333  0.460651099656  1.0000
  S   S2_L1        1.0  0.666666666667  0.333333333333  0.380795809785  1.0000
  W   W1_L2        1.0  0.333333333333  0.333333333333  0.579276545280  1.0000
  S   S1_L2        1.0  1.000000000000  0.666666666667  0.619204190215  1.0000
  S   S2_L2        1.0  1.000000000000  0.666666666667  0.539348900344  1.0000

# Polar AB stacking (B-sites over A-sites)
# tau = [0.333333, 0.333333] (high-symmetry stacking)
# Interlayer distance = 3.1 Å
# Layer thickness = 3.15 Å each
