# Generated by SYMPOL2D
# Material: BN (1BN-1)
# Stacking: AB2 - tau = [0.0000, 0.3333]
# Interlayer distance: 3.100 A
# Polarization direction: x
# Date: 2025-09-22 20:44:02

data_BN_AB2

_chemical_name_common     'BN AB2 bilayer'
_cell_length_a            2.510267
_cell_length_b            2.510267
_cell_length_c            18.100000
_cell_angle_alpha         90.0000
_cell_angle_beta          90.0000
_cell_angle_gamma         120.0000

_symmetry_space_group_name_H-M    'P 1'
_symmetry_Int_Tables_number       1

loop_
_atom_site_label
_atom_site_type_symbol
_atom_site_fract_x
_atom_site_fract_y
_atom_site_fract_z
_atom_site_occupancy
B1_L1    B    0.000000   0.000000   0.500000 1.0
N2_L1    N    0.333333   0.666667   0.500000 1.0
B3_L2    B    0.000000   0.333333   0.706667 1.0
N4_L2    N    0.333333   0.000000   0.706667 1.0
